626

 C                 27.85814553    1.40591845    0.85239731
 S                 29.31357662    0.45292948    0.61381881
 C                 30.33683469    1.75127897    1.04881935
 C                 29.62853933    2.86164405    1.36041051
 C                 28.21375654    2.67256613    1.26427949
 O                 27.33365668    3.68091816    1.49917173
 C                 27.16962329    4.05211518    2.87226815
 C                 30.11290744    5.09606610    0.84065271
 O                 30.18819453    4.02591198    1.78130005
 H                 31.40693864    1.61264062    1.07642363
 H                 28.15020163    4.09890103    3.34920604
 H                 26.57591986    3.28228616    3.38634388
 H                 29.07553686    5.26064347    0.53313116
 H                 30.68599250    4.81570895   -0.05179376
 C                 26.50537418    5.41629683    2.93923234
 H                 27.15762764    6.11852137    2.38394244
 C                 30.67318163    6.35583272    1.48909416
 H                 30.06798339    6.53886333    2.39128518
 C                 24.05293984    0.44871094    0.39382267
 S                 25.06591210    1.75045228    0.90081320
 C                 26.53167889    0.84534601    0.66143767
 C                 26.18348822   -0.43868964    0.30562671
 C                 24.78982842   -0.64164813    0.15066148
 O                 24.23077701   -1.83713922   -0.12836285
 C                 24.39661523   -2.26675171   -1.47344138
 C                 27.07543337   -2.45141027    1.13115168
 O                 27.05476153   -1.44871670    0.10705822
 H                 23.91221907   -1.55508012   -2.15004303
 H                 25.46484235   -2.27955780   -1.69375919
 H                 27.58237887   -2.05761422    2.01571096
 H                 26.04637047   -2.69657850    1.41788578
 C                 23.81607218   -3.65958433   -1.58786631
 H                 24.32167031   -4.28256003   -0.82769017
 C                 27.75245162   -3.68424957    0.58057794
 H                 27.18494010   -3.99826964   -0.31224334
 C                 25.12676861    5.39789576    2.26512730
 H                 24.66385181    6.38725734    2.24801914
 H                 25.19349252    5.06156749    1.22791042
 H                 24.45286056    4.71663475    2.79410965
 C                 26.44811566    5.85782252    4.40206312
 H                 25.79910296    5.16754381    4.96420098
 H                 27.44755344    5.76206438    4.84121455
 C                 25.96655760    7.28938929    4.61559663
 H                 24.93004232    7.43684630    4.29372439
 H                 26.00058642    7.56251739    5.67160398
 H                 26.59785406    8.00045969    4.06939357
 C                 32.13117609    6.14391695    1.89928980
 H                 32.52376098    6.99977327    2.45533266
 H                 32.24034750    5.27467080    2.54635201
 H                 32.76295157    5.99306385    1.01605260
 C                 30.48196094    7.53403337    0.51705255
 H                 29.42826738    7.56848355    0.21056041
 H                 31.06166049    7.34796339   -0.39696913
 C                 30.86664769    8.88905753    1.09699283
 H                 31.93036186    8.95580926    1.33900106
 H                 30.65331844    9.68788128    0.38835576
 H                 30.29753580    9.09383278    2.01719164
 C                 29.19099168   -3.37934295    0.15649115
 H                 29.67942212   -4.23584147   -0.30410494
 H                 29.23321918   -2.56517611   -0.58300101
 H                 29.78957696   -3.07253882    1.01797812
 C                 27.66239628   -4.80037402    1.63587736
 H                 28.23400921   -4.49153622    2.52119253
 H                 26.61639325   -4.89101155    1.95315929
 C                 28.16003791   -6.15608647    1.16546897
 H                 29.22346832   -6.15161329    0.91725465
 H                 28.01906601   -6.91919622    1.93565838
 H                 27.61348876   -6.47896014    0.26355747
 C                 22.32529634   -3.65469543   -1.29979983
 H                 21.88484775   -4.65363089   -1.27666783
 H                 22.12342060   -3.23572418   -0.31358628
 H                 21.77479846   -3.05513834   -2.04167123
 C                 24.14184163   -4.20796602   -2.97669275
 H                 25.22106018   -4.10957224   -3.14790231
 H                 23.64899768   -3.58347166   -3.73094353
 C                 23.74640025   -5.66321036   -3.18671059
 H                 22.66731693   -5.81792369   -3.13644663
 H                 24.05863800   -6.00998270   -4.17582915
 H                 24.22133657   -6.31317090   -2.43797926
 C                 20.13335898    0.19588235    0.00548696
 S                 21.55649600   -0.81204462   -0.10305484
 C                 22.63226375    0.49321264    0.19969027
 C                 21.95073728    1.64707401    0.30364988
 C                 20.54419206    1.48459281    0.25735860
 O                 19.72959483    2.55560694    0.40955835
 C                 19.66221832    3.07419056    1.74470426
 C                 22.56619001    3.74649655   -0.49756966
 O                 22.55428686    2.82286188    0.56566214
 H                 20.64744213    3.11656474    2.18870421
 H                 19.04729991    2.40010940    2.35461692
 H                 21.53390270    3.93385568   -0.78249784
 H                 23.10825249    3.32052472   -1.34262176
 C                 19.07199875    4.47013841    1.68509811
 H                 19.73624385    5.07700481    1.04603197
 C                 23.22075898    5.02432219    0.00997272
 H                 22.66243062    5.33076445    0.91785231
 C                 16.29957436   -0.61630812   -0.25494608
 S                 17.38067589    0.65277493    0.17452954
 C                 18.78794238   -0.32524285   -0.08813380
 C                 18.35485593   -1.61250921   -0.29525420
 C                 16.95449613   -1.76113009   -0.38361646
 O                 16.31150613   -2.94156410   -0.51983410
 C                 16.40485470   -3.50461061   -1.81827934
 C                 19.15254168   -3.55743464    0.71224141
 O                 19.16872086   -2.68355384   -0.41429257
 H                 15.92305800   -2.83754990   -2.54889879
 H                 17.46028410   -3.59288784   -2.07256715
 H                 19.71657345   -3.09637018    1.53648473
 H                 18.12678761   -3.71959504    1.04528851
 C                 15.75338229   -4.86924358   -1.77395235
 H                 16.24306958   -5.43075132   -0.96462613
 C                 19.74746112   -4.88857525    0.28044409
 H                 19.92093354   -4.82509292   -0.80435296
 C                 17.67390592    4.45753583    1.05711234
 H                 17.26470029    5.46509652    0.94373290
 H                 17.67747749    4.02050107    0.06747217
 H                 16.97379019    3.88161481    1.67733353
 C                 19.08118859    5.06814077    3.10045223
 H                 18.42475241    4.48198447    3.74272745
 H                 20.10391737    4.96617102    3.51192514
 C                 18.69241060    6.54161207    3.17204683
 H                 17.65539483    6.71520029    2.86287843
 H                 18.77765636    6.91555294    4.19673876
 H                 19.33375816    7.15718642    2.53247925
 C                 24.67528746    4.79258297    0.39462835
 H                 25.14628899    5.66533808    0.84637275
 H                 24.76052449    4.02597369    1.14351884
 H                 25.27385562    4.49030247   -0.48220448
 C                 23.06001136    6.10200388   -1.06593216
 H                 22.00301475    6.15638516   -1.33647456
 H                 23.60709043    5.78925219   -1.96803739
 C                 23.53939884    7.47752523   -0.63753792
 H                 24.61512174    7.51416285   -0.43884310
 H                 23.34571625    8.20940571   -1.42806728
 H                 23.02402657    7.81637154    0.26832780
 C                 21.08709794   -5.13586541    0.97743106
 H                 21.56945066   -6.05764343    0.62718400
 H                 21.79711037   -4.33657087    0.77787037
 H                 20.94596649   -5.20600687    2.06543926
 C                 18.72456871   -5.98862499    0.54742025
 H                 18.53961132   -6.06457552    1.62862354
 H                 17.77033538   -5.69174379    0.08937245
 C                 19.10891201   -7.35900875    0.00599151
 H                 20.00868833   -7.75764702    0.49012014
 H                 18.31678657   -8.09033998    0.17658810
 H                 19.30599595   -7.31178432   -1.06997899
 C                 14.27785571   -4.74430459   -1.45047891
 H                 13.78905653   -5.70962581   -1.29351988
 H                 14.18202804   -4.18708686   -0.54416088
 H                 13.72604004   -4.20682125   -2.23406187
 C                 15.99586032   -5.57038284   -3.10546533
 H                 17.07700018   -5.55426161   -3.31683961
 H                 15.51297979   -5.00227766   -3.91161867
 C                 15.50716083   -7.01719672   -3.14510494
 H                 14.42766535   -7.10402288   -3.04235501
 H                 15.77703135   -7.48737498   -4.10177774
 H                 15.96959825   -7.60509326   -2.34847906
 C                 12.40081414   -0.68183321   -0.56370345
 S                 13.74708872   -1.75711525   -0.82525577
 C                 14.89871323   -0.50206895   -0.54205012
 C                 14.30471177    0.67244679   -0.41215191
 C                 12.89935719    0.57696432   -0.32927188
 O                 12.17419783    1.67845514   -0.07262473
 C                 12.24983139    2.16104921    1.27700199
 C                 14.97941313    2.74963238   -1.20441949
 O                 14.98662651    1.81136537   -0.16749616
 H                 13.28444293    2.14610106    1.62892854
 H                 11.65676737    1.50275870    1.92587217
 H                 13.94042100    3.00062790   -1.39961395
 H                 15.42856437    2.30270196   -2.10880622
 C                 11.73962205    3.59216151    1.29903607
 H                 11.47485913    3.85686678    0.26403849
 C                 15.74574984    3.96913835   -0.72656671
 H                 15.29884830    4.28027366    0.22736571
 C                  8.51089381   -1.26803175   -0.47532597
 S                  9.69864623   -0.04577150   -0.21701290
 C                 11.02079147   -1.12293330   -0.54723249
 C                 10.51527094   -2.37891660   -0.73123639
 C                  9.09510227   -2.44256481   -0.70372903
 O                  8.39352209   -3.59738310   -0.81141904
 C                  8.34651451   -4.13897310   -2.11413649
 C                 11.30365719   -4.40554220    0.15715949
 O                 11.25323842   -3.50006954   -0.93941328
 H                  7.84022479   -3.43102842   -2.78873688
 H                  9.36521508   -4.27954975   -2.47119918
 H                 11.96157403   -4.00174623    0.93728459
 H                 10.30117143   -4.51033802    0.58371945
 C                  7.62358210   -5.46233943   -2.03490833
 H                  8.15005293   -6.07848169   -1.29127112
 C                 11.78009628   -5.75714380   -0.35184070
 H                 11.92415289   -5.65581977   -1.44026847
 C                 10.49380905    3.71155637    2.17058712
 H                 10.07061513    4.72290937    2.14446048
 H                  9.69561179    3.04752028    1.83828116
 H                 10.72053848    3.47016712    3.21606304
 C                 12.88415155    4.50577458    1.75121946
 H                 13.15229932    4.25477134    2.78712659
 H                 13.77323103    4.29699213    1.13880002
 C                 12.57184430    5.99759442    1.65989694
 H                 11.75942938    6.30101530    2.32097111
 H                 13.44354927    6.58815033    1.94533157
 H                 12.29012401    6.27314913    0.63461479
 C                 17.23203453    3.66757048   -0.49055852
 H                 17.77326906    4.50588534   -0.05420561
 H                 17.33771413    2.88284557    0.23809425
 H                 17.72460216    3.34051449   -1.41349361
 C                 15.55726761    5.08068395   -1.75259917
 H                 14.48005048    5.20430134   -1.94398486
 H                 16.00477441    4.75736752   -2.71369756
 C                 16.14579499    6.41725182   -1.34947402
 H                 17.23834523    6.39476908   -1.24490943
 H                 15.92853306    7.18605518   -2.10256258
 H                 15.73053722    6.75648148   -0.39869671
 C                 13.10829497   -6.14318252    0.27366509
 H                 13.52059652   -7.06444521   -0.12356423
 H                 13.81635956   -5.36715146    0.02544996
 H                 13.03335411   -6.23008482    1.36588085
 C                 10.68758314   -6.79618224   -0.08555029
 H                 10.55292233   -6.89410839    1.00324465
 H                  9.73585657   -6.41684490   -0.47994305
 C                 10.96213087   -8.16786214   -0.68855958
 H                 11.85106147   -8.64115383   -0.26905892
 H                 10.12405566   -8.84040544   -0.52151462
 H                 11.12224320   -8.08183765   -1.77418186
 C                  6.18414711   -5.27396227   -1.57207396
 H                  5.66081175   -6.21519089   -1.41328888
 H                  6.15197322   -4.75772596   -0.62388206
 H                  5.60371649   -4.68029001   -2.29612689
 C                  7.71991488   -6.15191521   -3.40869562
 H                  8.77390783   -6.18665660   -3.70534176
 H                  7.19344404   -5.53577295   -4.15233284
 C                  7.15396035   -7.56802940   -3.43744203
 H                  6.08032386   -7.59606523   -3.23121813
 H                  7.31055569   -8.02527205   -4.41933834
 H                  7.65933410   -8.20290432   -2.69170612
 C                  4.55977229   -1.14568133   -0.41421992
 S                  5.85536419   -2.28683265   -0.69239558
 C                  7.08047688   -1.08163458   -0.51079274
 C                  6.53017681    0.11874417   -0.31874977
 C                  5.11896105    0.09019037   -0.20582749
 O                  4.43719846    1.23525326    0.05518475
 C                  4.55940339    1.72951745    1.39211281
 C                  7.24810491    2.16941585   -1.15815897
 O                  7.27568991    1.23057543   -0.11130404
 H                  5.60189712    1.67902155    1.70765195
 H                  3.96307247    1.10280240    2.05672184
 H                  6.20940929    2.46316458   -1.32940994
 H                  7.64151838    1.70958472   -2.07324313
 C                  4.09844444    3.17833966    1.40417657
 H                  3.92887246    3.46713355    0.35338516
 C                  8.07067083    3.37513331   -0.72565151
 H                  7.65486661    3.71873756    0.23624997
 C                  0.65950189   -1.56658701   -0.18437421
 S                  1.86810858   -0.34073334   -0.14525862
 C                  3.15790738   -1.50138516   -0.38487388
 C                  2.59531378   -2.75428366   -0.50901866
 C                  1.17806186   -2.76587074   -0.42732091
 O                  0.41206148   -3.87230477   -0.51582256
 C                  0.32137397   -4.44527812   -1.81515580
 C                  3.32258922   -4.80312462    0.37248124
 O                  3.28639817   -3.90259951   -0.72876873
 H                 -0.17882947   -3.73789336   -2.48992115
 H                  1.32507077   -4.64071724   -2.18568099
 H                  4.01938822   -4.42003845    1.12494772
 H                  2.32619473   -4.87467795    0.82697992
 C                 -0.44906837   -5.74693063   -1.70473929
 H                  0.08307752   -6.37780977   -0.96573293
 C                  3.74803782   -6.17333162   -0.13431640
 H                  3.00461701   -6.46918918   -0.89121315
 C                  2.79013737    3.33634171    2.17634463
 H                  2.41387140    4.36420815    2.13156340
 H                  1.99431176    2.70513869    1.76652530
 H                  2.92659471    3.06487935    3.22885962
 C                  5.24020729    4.04026418    1.96129091
 H                  5.41772013    3.76007856    3.02000352
 H                  6.16039656    3.80398333    1.42285331
 C                  4.99988765    5.53975029    1.87410682
 H                  4.13956081    5.86614845    2.48180408
 H                  5.86352706    6.09797906    2.23218391
 H                  4.80502729    5.84775701    0.84039256
 C                  9.53707294    3.00925192   -0.51611930
 H                 10.13440395    3.82690589   -0.11657357
 H                  9.63512699    2.22297567    0.21904414
 H                 10.00498533    2.65584236   -1.45177581
 C                  7.89193072    4.47871036   -1.76903923
 H                  6.81861078    4.63733980   -1.93339190
 H                  8.29753189    4.12706480   -2.73652173
 C                  8.53924306    5.80299293   -1.40151467
 H                  9.63000200    5.72760210   -1.31694878
 H                  8.32823551    6.56724310   -2.14924796
 H                  8.15568205    6.16519137   -0.43575320
 C                  5.11750713   -6.12677999   -0.78653883
 H                  5.41119188   -7.07785260   -1.22575507
 H                  5.13796648   -5.40135828   -1.59686805
 H                  5.88622284   -5.83140524   -0.05720507
 C                  3.67588125   -7.16857264    1.03241682
 H                  4.41439082   -6.88092492    1.79220211
 H                  2.68681245   -7.09062503    1.50914382
 C                  3.90084942   -8.62308605    0.63697885
 H                  4.90380848   -8.80174197    0.24371393
 H                  3.78025662   -9.28244705    1.49936301
 H                  3.17818019   -8.93605657   -0.13321748
 C                 -1.87377825   -5.49166356   -1.18837399
 H                 -2.41988071   -6.41654431   -1.00931268
 H                 -1.86552345   -4.94784506   -0.25077158
 H                 -2.43579803   -4.90167706   -1.92142088
 C                 -0.41249401   -6.45320477   -3.06269313
 H                  0.62531621   -6.53322261   -3.39306503
 H                 -0.93080149   -5.83372943   -3.81056067
 C                 -1.03349263   -7.84954788   -3.07102535
 H                 -2.09706684   -7.83494869   -2.83206774
 H                 -0.93229112   -8.32384102   -4.03999155
 H                 -0.54051812   -8.49330227   -2.33145730
 C                 -3.23657240   -1.19912010   -0.26759464
 S                 -2.02791671   -2.48119949   -0.19810504
 C                 -0.74229936   -1.34217276   -0.20150494
 C                 -1.17889622   -0.09177896   -0.33975347
 C                 -2.58735902    0.01513091   -0.32953326
 O                 -3.17933416    1.23024444   -0.44508936
 C                 -3.08062890    2.05866183    0.72494698
 C                 -0.22984912    1.60077304   -1.63742655
 O                 -0.32558907    0.95537336   -0.37881626
 H                 -2.05727885    2.01653160    1.12227456
 H                 -3.76376025    1.67311884    1.49442677
 H                 -1.22861610    1.90958388   -1.95428821
 H                  0.16663835    0.89896440   -2.38418909
 C                 -3.40665149    3.48583086    0.32742988
 H                 -2.68621412    3.78420883   -0.44545077
 C                  0.66962204    2.81583077   -1.47405299
 H                  0.23656183    3.43237770   -0.67836428
 C                 -7.18245998   -1.25867255   -0.24511215
 S                 -5.85398534   -0.17118172   -0.25110195
 C                 -4.66732423   -1.43511909   -0.21141361
 C                 -5.33077876   -2.63200172   -0.07466325
 C                 -6.75058060   -2.51664134   -0.11135290
 O                 -7.58577140   -3.56120936    0.06023964
 C                 -7.66963797   -4.43253861   -1.05288635
 C                 -4.83475240   -4.41255633    1.36511084
 O                 -4.73273138   -3.83732771    0.06250403
 H                 -8.06092570   -3.88575894   -1.92152212
 H                 -6.66937537   -4.79344447   -1.29582442
 H                 -4.14125682   -3.88742678    2.04246214
 H                 -5.84923949   -4.27457287    1.75469337
 C                 -8.56292955   -5.59655599   -0.66275157
 H                 -8.83239739   -5.45151769    0.39896919
 C                 -4.51084325   -5.88413893    1.26051320
 H                 -5.23236688   -6.33400655    0.55232341
 C                 -4.81331507    3.59450261   -0.24664265
 H                 -5.04163671    4.60390248   -0.59805370
 H                 -4.94808091    2.93597344   -1.10871833
 H                 -5.56342570    3.31531821    0.50275941
 C                 -3.19377901    4.39048967    1.56034106
 H                 -3.92149234    4.10717606    2.33770062
 H                 -2.19641246    4.18650386    1.96891609
 C                 -3.31674842    5.87615617    1.27350632
 H                 -4.31728255    6.16874370    0.94134647
 H                 -3.10041199    6.46510187    2.16728518
 H                 -2.60493933    6.18740250    0.48797821
 C                  2.08050285    2.39296274   -1.06419140
 H                  2.72382462    3.25093544   -0.85202496
 H                  2.06719040    1.79886128   -0.15740552
 H                  2.55552864    1.80359389   -1.86087147
 C                  0.64081648    3.62220056   -2.78441122
 H                 -0.41207456    3.81762490   -3.05318327
 H                  1.05579353    3.00334867   -3.60173369
 C                  1.37697858    4.94935036   -2.72765888
 H                  2.44996688    4.82603643   -2.55736201
 H                  1.27967535    5.49965757   -3.66675640
 H                  0.99450750    5.58021114   -1.92030140
 C                 -3.10590118   -6.10457983    0.71048432
 H                 -2.87538725   -7.16483265    0.56610291
 H                 -2.96685140   -5.62967904   -0.26097796
 H                 -2.35015223   -5.69338907    1.40342261
 C                 -4.72859097   -6.52449309    2.63907309
 H                 -4.00789561   -6.10265010    3.35094154
 H                 -5.72696225   -6.25382830    3.01028166
 C                 -4.61060454   -8.04537232    2.65640137
 H                 -3.60359782   -8.39552270    2.38818720
 H                 -4.83187995   -8.45164720    3.64305068
 H                 -5.31243795   -8.50377770    1.94192082
 C                 -9.84930958   -5.60753404   -1.49221470
 H                -10.55921653   -6.36534607   -1.16425100
 H                -10.36549163   -4.66345328   -1.39343830
 H                 -9.63035729   -5.77011081   -2.56021942
 C                 -7.76853214   -6.89751042   -0.80888262
 H                 -6.81931375   -6.78582917   -0.25488830
 H                 -7.48950655   -7.03443921   -1.85864155
 C                 -8.49259186   -8.13393605   -0.30422655
 H                 -9.39507558   -8.35542827   -0.87967701
 H                 -7.84517448   -9.01594569   -0.37431134
 H                 -8.78228423   -8.01634735    0.74208091
 C                -11.07588155   -0.60302656   -0.36333179
 S                 -9.94760251   -1.90487033   -0.04383930
 C                 -8.57805060   -0.93103628   -0.39866276
 C                 -8.95142703    0.28456437   -0.81650861
 C                -10.34933441    0.50423980   -0.74883325
 O                -10.87112746    1.70676216   -1.08240711
 C                -10.63100261    2.76334648   -0.13126385
 C                 -8.00311209    1.58879865   -2.50620697
 O                 -8.06855087    1.25874927   -1.13602545
 H                 -9.59560235    2.72501750    0.21482571
 H                -11.29428472    2.60867450    0.73420556
 H                 -9.00704742    1.89354484   -2.82909707
 H                 -7.70632159    0.70189853   -3.08233226
 C                -10.89507396    4.08644388   -0.81102044
 H                -10.20968269    4.14517617   -1.67380992
 C                 -7.01197385    2.72487152   -2.66332760
 H                 -7.35400926    3.53301388   -1.99637288
 C                -14.98887897   -0.38461953   -0.11517840
 S                -13.59745610    0.59681397   -0.34129981
 C                -12.49456579   -0.73148759   -0.16200588
 C                -13.23023001   -1.81812742    0.25335531
 C                -14.63119379   -1.60770253    0.27625699
 O                -15.53429795   -2.50070250    0.72106749
 C                -15.76295477   -3.58305514   -0.16523763
 C                -12.76453076   -3.25818287    2.01998324
 O                -12.71756246   -3.00002844    0.61678744
 H                -16.75581750   -3.47124718   -0.63707669
 H                -15.01107773   -3.55295875   -0.94804103
 H                -11.98891122   -2.65762929    2.52865255
 H                -13.73747108   -2.96440764    2.42750964
 C                -15.65790172   -4.86557266    0.61745317
 H                -14.81684848   -5.43158627    0.18103735
 C                -12.54558268   -4.74044324    2.22652557
 H                -13.35044076   -5.26438834    1.67945222
 C                -12.33671286    4.17575129   -1.31640242
 H                -12.51847783    5.10341048   -1.86868548
 H                -12.57026070    3.36395887   -1.99253229
 H                -13.04227317    4.13144087   -0.47980215
 C                -10.53029801    5.21844700    0.16964397
 H                -11.21600270    5.17329759    1.03634071
 H                 -9.52565964    5.03644885    0.55198726
 C                -10.57663144    6.61266400   -0.43244869
 H                -11.58023422    6.90381702   -0.75925134
 H                -10.25718625    7.35926126    0.29819492
 H                 -9.91580978    6.68933276   -1.30843255
 C                 -5.60717413    2.30509154   -2.26579976
 H                 -4.89503659    3.13590269   -2.28052769
 H                 -5.59210961    1.95888811   -1.24167562
 H                 -5.22880391    1.49961851   -2.91344320
 C                 -7.09503171    3.22170934   -4.11368933
 H                 -8.13564944    3.43584529   -4.35505434
 H                 -6.76923969    2.41487523   -4.78650361
 C                 -6.25470260    4.46975810   -4.39087452
 H                 -5.18027365    4.30019438   -4.25034160
 H                 -6.38802740    4.80542823   -5.41368838
 H                 -6.54809263    5.29236273   -3.71906146
 C                -11.19942751   -5.18896302    1.67145746
 H                -11.05071626   -6.26876386    1.75272516
 H                -11.11780664   -4.95492201    0.61034575
 H                -10.36920527   -4.68694339    2.19454477
 C                -12.70366333   -5.04977744    3.72156153
 H                -11.90288296   -4.53590888    4.27769712
 H                -13.65351897   -4.62286796    4.07768441
 C                -12.68729361   -6.53850072    4.06160787
 H                -11.73075309   -7.01564738    3.82930955
 H                -12.85615788   -6.69457058    5.12594646
 H                -13.46734335   -7.07559000    3.51108525
 C                -15.35684682   -4.59157830    2.07941429
 H                -15.14667937   -5.48901980    2.66193619
 H                -14.46981891   -3.98017486    2.11370919
 H                -16.16192734   -4.03372177    2.57095887
 C                -16.94300636   -5.67179077    0.44398539
 H                -17.14492841   -5.76252854   -0.63837280
 H                -17.77764021   -5.09864447    0.87001476
 C                -16.90700660   -7.05463196    1.05736958
 H                -16.80285586   -7.03535505    2.14576047
 H                -17.83048431   -7.60202917    0.84231747
 H                -16.07266769   -7.64472795    0.65804104
 C                -18.80436714    0.45422740   -0.21996896
 S                -17.77910337   -0.94203639   -0.01511264
 C                -16.35792790   -0.05492410   -0.37592315
 C                -16.65003548    1.18087070   -0.76847014
 C                -18.00688155    1.51260590   -0.59754472
 O                -18.43377219    2.77157753   -0.84484505
 C                -18.03901189    3.74057890    0.12972876
 C                -15.65573225    2.45290102   -2.43853710
 O                -15.70559079    2.08983200   -1.09528954
 H                -16.99388152    3.59726458    0.41126292
 H                -18.65376978    3.60876591    1.02130678
 H                -16.34913494    1.79658419   -2.97541871
 H                -14.64110713    2.29003427   -2.83314267
 C                -18.21569717    5.11658644   -0.48171957
 H                -18.51385039    4.97058733   -1.53433351
 C                -16.09082041    3.91389905   -2.54749066
 H                -17.05625968    3.99187272   -2.04484198
 C                -22.67847534    1.02178144    0.26588834
 S                -21.21635614    1.87459086   -0.10171018
 C                -20.22842211    0.44859753    0.04294976
 C                -21.02830553   -0.57868137    0.46978984
 C                -22.40685340   -0.24495134    0.57344568
 O                -23.34405807   -1.09756743    1.02744391
 C                -23.70867382   -2.10927580    0.11174400
 C                -20.58504377   -2.15670087    2.16365952
 O                -20.59418362   -1.82405870    0.76570248
 H                -22.86177181   -2.77866732   -0.06394939
 H                -24.53045899   -2.69165165    0.54466879
 H                -19.74361825   -1.64266641    2.63734176
 H                -21.51080648   -1.80383274    2.61835021
 C                -24.16610558   -1.42762934   -1.17169121
 H                -24.97923053   -0.72684603   -0.89125581
 C                -20.50478013   -3.65960586    2.30446799
 H                -21.36312004   -4.08948712    1.77480238
 C                -19.32108621    5.90054585    0.22766518
 H                -19.50019426    6.87128711   -0.24613295
 H                -20.27328611    5.37119278    0.20124685
 H                -19.05024082    6.07794523    1.27197963
 C                -16.85857511    5.83280380   -0.46613241
 H                -16.55627577    5.99995867    0.58056344
 H                -16.10338341    5.17773435   -0.90970881
 C                -16.84466991    7.16891256   -1.20477916
 H                -17.49780175    7.91470145   -0.75386118
 H                -15.82927957    7.59218105   -1.20918262
 H                -17.14720543    7.03141295   -2.24697577
 C                -15.10404152    4.85569675   -1.85786055
 H                -15.44004534    5.88965984   -1.84672924
 H                -15.00341481    4.60824645   -0.81808518
 H                -14.10667702    4.80320101   -2.32541675
 C                -16.25336257    4.23613885   -4.02973044
 H                -16.90264290    3.48179446   -4.47860418
 H                -15.27822133    4.14860963   -4.52856742
 C                -16.83322328    5.62278900   -4.29778049
 H                -16.17017328    6.43142926   -3.95782108
 H                -16.98536261    5.77490501   -5.36680025
 H                -17.79857780    5.74032003   -3.80111184
 C                -19.23107408   -4.20247609    1.66801941
 H                -19.16912650   -5.29949054    1.67955661
 H                -19.24004981   -3.92878695    0.62801724
 H                -18.32458568   -3.80131511    2.14711780
 C                -20.59912654   -4.01793238    3.78260870
 H                -19.73114373   -3.60555895    4.31162038
 H                -21.48765663   -3.51765235    4.20288337
 C                -20.69457369   -5.50880592    4.06964032
 H                -19.80476954   -6.05809715    3.75750676
 H                -20.83371424   -5.69375959    5.13772999
 H                -21.55170652   -5.96093269    3.54189418
 C                -23.02922708   -0.63360926   -1.80787260
 H                -23.34892699   -0.05277199   -2.66544176
 H                -22.63480975    0.09125846   -1.09745567
 H                -22.20848461   -1.28828477   -2.11509261
 C                -24.73580590   -2.48597742   -2.10654163
 H                -25.49107312   -3.07257310   -1.56110620
 H                -23.94122242   -3.19644258   -2.37905670
 C                -25.37320915   -1.93268444   -3.37460347
 H                -24.64731680   -1.42275823   -4.01932827
 H                -25.81320081   -2.73683874   -3.97306593
 H                -26.16553706   -1.22137998   -3.13361849
 C                -26.41732619    2.25949561    0.43983651
 S                -25.46943988    0.83394723    0.79986892
 C                -24.01263660    1.54597456    0.20477120
 C                -24.25463787    2.77030150   -0.29177580
 C                -25.59535414    3.20138918   -0.11989420
 O                -25.96706881    4.43517085   -0.51802859
 C                -25.48868783    5.51306184    0.28838486
 C                -23.31264844    3.75654778   -2.18620822
 O                -23.27819361    3.56060306   -0.79185585
 H                -24.43202492    5.34693845    0.53971434
 H                -26.05752486    5.53675316    1.22820567
 H                -24.28690439    4.17524329   -2.44158914
 H                -23.20705755    2.78318866   -2.69021475
 C                -25.62726867    6.80284655   -0.49068558
 H                -25.03770106    6.68355132   -1.41533616
 C                -22.20551332    4.72095342   -2.55209562
 H                -22.34507122    5.62130192   -1.93444186
 C                -30.21654178    3.15522793    0.94710811
 S                -28.77463267    3.79275518    0.29177832
 C                -27.83537729    2.37803765    0.73186197
 C                -28.66110680    1.48008283    1.36269309
 C                -30.02304390    1.92610948    1.46655628
 O                -30.98313494    1.20927496    2.09087468
 C                -31.42784350    0.05287722    1.36991799
 C                -28.20051959    0.09704463    3.22343616
 O                -28.27540639    0.24995816    1.80431340
 H                -31.12934970    3.73955497    0.91329057
 H                -31.88880521    0.39083344    0.42503710
 H                -30.57814439   -0.58073795    1.12003152
 H                -27.30477349    0.62077727    3.59268276
 H                -29.07514852    0.55994048    3.67736532
 C                -32.41348425   -0.70954441    2.23624677
 H                -31.88995830   -0.97079431    3.16375369
 C                -28.17417950   -1.38694428    3.55822433
 H                -29.09023800   -1.82489485    3.13770547
 C                -27.08481343    7.05885456   -0.87359963
 H                -27.19531088    7.95158624   -1.49723451
 H                -27.50682154    6.22879756   -1.44763320
 H                -27.69602002    7.20291062    0.01913457
 C                -25.01186714    7.94317360    0.33079795
 H                -25.59899802    8.07902277    1.25097312
 H                -23.99258261    7.64766971    0.64182284
 C                -24.91983507    9.27083645   -0.40604766
 H                -25.90251134    9.68433741   -0.66288282
 H                -24.42532297   10.02922024    0.21048442
 H                -24.35002925    9.16544716   -1.33471036
 C                -20.82675940    4.13120386   -2.23995289
 H                -20.00878206    4.83520671   -2.40815832
 H                -20.75137911    3.87075449   -1.19597783
 H                -20.64092729    3.22529647   -2.83062897
 C                -22.35665270    5.08876384   -4.02225628
 H                -23.37517319    5.44010908   -4.19334848
 H                -22.22551513    4.18322079   -4.64136428
 C                -21.38276593    6.16759355   -4.50668485
 H                -20.33884011    5.84683369   -4.45441649
 H                -21.57985444    6.43028510   -5.54159996
 H                -21.47855257    7.07685636   -3.89925908
 C                -26.96574841   -2.07279159    2.93060360
 H                -26.97347529   -3.14836807    3.10402654
 H                -26.95415154   -1.94343635    1.85128310
 H                -26.02888422   -1.66218710    3.32833397
 C                -28.20618186   -1.53137337    5.08459783
 H                -27.29791794   -1.10223564    5.51296386
 H                -29.04343241   -0.93909702    5.47883157
 C                -28.36675570   -2.96884107    5.57906993
 H                -27.51295021   -3.60296073    5.30720886
 H                -28.43916620   -3.00218935    6.66757561
 H                -29.27147275   -3.42589213    5.16110896
 C                -33.62787814    0.16400324    2.57174933
 H                -34.30564325   -0.33848139    3.27120888
 H                -33.32408872    1.09870116    3.04392704
 H                -34.19698634    0.39616659    1.66824724
 C                -32.79995725   -2.01573374    1.50685794
 H                -31.87746259   -2.54727578    1.22727492
 H                -33.31276748   -1.76996604    0.57260750
 C                -33.67120581   -2.95157329    2.33028388
 H                -34.64944477   -2.52774068    2.56096648
 H                -33.85474606   -3.88748034    1.78503993
 H                -33.18776292   -3.21242014    3.28214621
