40

C          3.76537        2.26795        2.72100
S          5.16923        1.91787        3.65911
C          5.37443        0.37866        2.90940
C          4.40127        0.15234        1.98095
C          3.47598        1.24164        1.87057
O          2.43453        1.20261        1.00712
C          2.55327        0.21145       -0.01073
C          3.00691       -1.11560        0.60314
O          4.28525       -0.95672        1.21392
H          6.18934       -0.28758        3.18102
H          3.33666        0.53201       -0.72441
H          2.27355       -1.38674        1.38702
C          1.21066        0.14329       -0.70386
H          0.89866        1.15803       -0.98544
H          0.44626       -0.27331       -0.03074
H          1.25857       -0.47031       -1.61318
C          3.14438       -2.24232       -0.39652
H          3.60846       -3.10691        0.09687
H          3.79045       -1.94170       -1.23507
H          2.16725       -2.55072       -0.79120
C          1.89875        5.27331        1.51088
S          2.04729        3.61196        1.07382
C          3.06192        3.27260        2.42610
C          3.27235        4.39342        3.17427
C          2.60027        5.54527        2.64848
O          2.69298        6.75534        3.24766
C          3.16593        6.70953        4.59180
C          4.38153        5.78390        4.68641
O          4.01549        4.46039        4.30339
H          1.30717        5.97037        0.92278
H          2.37040        6.27902        5.23029
H          5.14092        6.15921        3.97353
C          3.44623        8.13917        4.99835
H          2.56971        8.75849        4.76519
H          4.30508        8.54092        4.43975
H          3.65124        8.21819        6.07416
C          4.97270        5.68238        6.07485
H          5.73923        4.89579        6.08332
H          4.19858        5.41119        6.80841
H          5.44072        6.62687        6.38229
